/*--------------------------------*- C++ -*----------------------------------*\
| =========                 |                                                 |
| \\      /  F ield         | OpenFOAM: The Open Source CFD Toolbox           |
|  \\    /   O peration     | Version:  v2012                                 |
|   \\  /    A nd           | Website:  www.openfoam.com                      |
|    \\/     M anipulation  |                                                 |
\*---------------------------------------------------------------------------*/
FoamFile
{
    version     2.0;
    format      ascii;
    class       polyBoundaryMesh;
    location    "constant/polyMesh";
    object      boundary;
}
// * * * * * * * * * * * * * * * * * * * * * * * * * * * * * * * * * * * * * //

5
(
    inlet
    {
        type            patch;
        nFaces          10;
        startFace       11779;
    }
    outlet
    {
        type            patch;
        nFaces          10;
        startFace       11789;
    }
    walls
    {
        type            wall;
        inGroups        1(wall);
        nFaces          423;
        startFace       11799;
    }
    baffle
    {
        type            wall;
        inGroups        1(wall);
        nFaces          71;
        startFace       12222;
    }
    frontAndBack
    {
        type            empty;
        inGroups        1(empty);
        nFaces          12036;
        startFace       12293;
    }
)

// ************************************************************************* //
