/*--------------------------------*- C++ -*----------------------------------*\
| =========                 |                                                 |
| \\      /  F ield         | OpenFOAM: The Open Source CFD Toolbox           |
|  \\    /   O peration     | Version:  v2012                                 |
|   \\  /    A nd           | Website:  www.openfoam.com                      |
|    \\/     M anipulation  |                                                 |
\*---------------------------------------------------------------------------*/
FoamFile
{
    version     2.0;
    format      ascii;
    class       polyBoundaryMesh;
    location    "constant/polyMesh";
    object      boundary;
}
// * * * * * * * * * * * * * * * * * * * * * * * * * * * * * * * * * * * * * //

5
(
    inlet
    {
        type            patch;
        nFaces          10;
        startFace       11933;
    }
    outlet
    {
        type            patch;
        nFaces          10;
        startFace       11943;
    }
    walls
    {
        type            wall;
        inGroups        1(wall);
        nFaces          423;
        startFace       11953;
    }
    baffle
    {
        type            wall;
        inGroups        1(wall);
        nFaces          27;
        startFace       12376;
    }
    frontAndBack
    {
        type            empty;
        inGroups        1(empty);
        nFaces          12168;
        startFace       12403;
    }
)

// ************************************************************************* //
