/*--------------------------------*- C++ -*----------------------------------*\
| =========                 |                                                 |
| \\      /  F ield         | OpenFOAM: The Open Source CFD Toolbox           |
|  \\    /   O peration     | Version:  v2012                                 |
|   \\  /    A nd           | Website:  www.openfoam.com                      |
|    \\/     M anipulation  |                                                 |
\*---------------------------------------------------------------------------*/
FoamFile
{
    version     2.0;
    format      ascii;
    class       polyBoundaryMesh;
    location    "constant/polyMesh";
    object      boundary;
}
// * * * * * * * * * * * * * * * * * * * * * * * * * * * * * * * * * * * * * //

5
(
    frontAndBack
    {
        type            empty;
        physicalType    empty;
        nFaces          5178;
        startFace       28982;
    }
    walls
    {
        type            wall;
        physicalType    wall;
        nFaces          536;
        startFace       34160;
    }
    outlet
    {
        type            patch;
        physicalType    patch;
        nFaces          14;
        startFace       34696;
    }
    inlet
    {
        type            patch;
        physicalType    patch;
        nFaces          14;
        startFace       34710;
    }
    baffle
    {
        type            wall;
        physicalType    wall;
        nFaces          1542;
        startFace       34724;
    }
)

// ************************************************************************* //
